LTspice 24.1.4 for Windows
Circuit: E:\Proiecte\Electronica\OpenWave\hardware\simulation\pSpice libs\LMH6657.MOD
Start Time: Sat Feb 22 19:54:16 2025
No analysis specified.