LTspice 24.1.4 for Windows
Circuit: E:\Proiecte\Electronica\OpenWave\hardware\simulation\LTSpice\LTC2642-16 and LMH6658.net
Start Time: Sat Feb 22 20:14:30 2025
solver = Normal
Maximum thread count: 16
tnom = 27
temp = 27
method = trap
Total elapsed time: 0.000 seconds.
Voltage source V3 and voltage source V2 are paralleled making an over-defined circuit matrix.
You will need to correct the circuit or add some series resistance.